Version 4
SHEET 1 1408 1060
WIRE 1344 -304 704 -304
WIRE 704 -128 704 -304
WIRE 48 0 -304 0
WIRE 240 0 128 0
WIRE 400 0 240 0
WIRE 704 0 704 -48
WIRE 704 0 592 0
WIRE 784 0 704 0
WIRE 928 0 864 0
WIRE 1008 0 928 0
WIRE 240 16 240 0
WIRE 928 32 928 0
WIRE 240 96 240 80
WIRE 400 96 240 96
WIRE 704 96 592 96
WIRE 928 96 704 96
WIRE 1344 128 1344 -304
WIRE -304 240 -304 0
WIRE -304 384 -304 320
WIRE 240 384 240 96
WIRE 240 384 -304 384
WIRE 480 384 240 384
WIRE 704 384 704 96
WIRE 704 384 560 384
WIRE 992 384 704 384
WIRE 1344 384 1344 208
WIRE 1344 384 992 384
WIRE 992 480 992 384
FLAG 992 480 0
FLAG 704 -304 vdd
FLAG 1008 0 out2
SYMBOL voltage -304 224 R0
WINDOW 123 0 0 Left 0
WINDOW 39 0 0 Left 0
SYMATTR InstName V1
SYMATTR Value SINE(0 325 50 50m)
SYMBOL res 576 368 R90
WINDOW 0 0 56 VBottom 2
WINDOW 3 32 56 VTop 2
SYMATTR InstName R1
SYMATTR Value 10Meg
SYMBOL Optos\\PC817B 496 48 R0
SYMATTR InstName U2
SYMBOL res 144 -16 R90
WINDOW 0 0 56 VBottom 2
WINDOW 3 32 56 VTop 2
SYMATTR InstName R5
SYMATTR Value 220k
SYMBOL diode 256 80 R180
WINDOW 0 24 64 Left 2
WINDOW 3 24 0 Left 2
SYMATTR InstName D5
SYMATTR Value 1N4148
SYMBOL cap 912 32 R0
SYMATTR InstName C2
SYMATTR Value 1µ
SYMBOL res 688 -144 R0
SYMATTR InstName R6
SYMATTR Value 100k
SYMBOL voltage 1344 112 R0
SYMATTR InstName V2
SYMATTR Value 3.3
SYMBOL res 880 -16 R90
WINDOW 0 0 56 VBottom 2
WINDOW 3 32 56 VTop 2
SYMATTR InstName R2
SYMATTR Value 4k7
TEXT 0 -248 Left 2 !.tran 100m
