Version 4
SHEET 1 1056 1060
WIRE 944 -96 624 -96
WIRE 992 -96 944 -96
WIRE 624 -48 624 -96
WIRE -304 -16 -384 -16
WIRE -96 -16 -304 -16
WIRE -208 48 -240 48
WIRE -96 48 -96 -16
WIRE -96 48 -144 48
WIRE -48 48 -96 48
WIRE 64 48 16 48
WIRE 64 96 64 48
WIRE 144 96 64 96
WIRE 320 96 224 96
WIRE 624 96 624 32
WIRE 624 96 512 96
WIRE 640 96 624 96
WIRE 752 96 720 96
WIRE 784 96 752 96
WIRE 816 96 784 96
WIRE 752 128 752 96
WIRE -240 144 -240 48
WIRE -208 144 -240 144
WIRE -96 144 -144 144
WIRE -48 144 -96 144
WIRE 64 144 64 96
WIRE 64 144 16 144
WIRE 992 144 992 -96
WIRE -240 192 -240 144
WIRE 320 192 -240 192
WIRE 624 192 512 192
WIRE 624 208 624 192
WIRE 752 208 752 192
WIRE 752 208 624 208
WIRE -304 240 -304 -16
WIRE -304 384 -304 320
WIRE -96 384 -96 144
WIRE -96 384 -304 384
WIRE 480 384 -96 384
WIRE 624 384 624 208
WIRE 624 384 560 384
WIRE 992 384 992 224
WIRE 992 384 624 384
WIRE 992 480 992 384
WIRE -384 752 -384 -16
WIRE -32 752 -384 752
WIRE 160 752 48 752
WIRE 320 752 160 752
WIRE 624 752 624 704
WIRE 624 752 512 752
WIRE 992 752 624 752
WIRE 1008 752 992 752
WIRE 160 768 160 752
WIRE 624 768 624 752
WIRE -304 848 -304 384
WIRE 160 848 160 832
WIRE 160 848 -304 848
WIRE 320 848 160 848
WIRE 624 848 624 832
WIRE 624 848 512 848
WIRE 624 1040 624 848
FLAG 992 480 0
FLAG 784 96 out
FLAG 624 1040 0
FLAG 944 -96 vdd
FLAG 624 624 vdd
FLAG 992 752 out2
SYMBOL voltage -304 224 R0
WINDOW 123 0 0 Left 0
WINDOW 39 0 0 Left 0
SYMATTR InstName V1
SYMATTR Value SINE(0 325 50)
SYMBOL voltage 992 128 R0
SYMATTR InstName V2
SYMATTR Value 3.3
SYMBOL res 576 368 R90
WINDOW 0 0 56 VBottom 2
WINDOW 3 32 56 VTop 2
SYMATTR InstName R1
SYMATTR Value 10Meg
SYMBOL res 240 80 R90
WINDOW 0 0 56 VBottom 2
WINDOW 3 32 56 VTop 2
SYMATTR InstName R2
SYMATTR Value 240k
SYMBOL Optos\\PC817B 416 144 R0
SYMATTR InstName U1
SYMBOL res 608 -64 R0
SYMATTR InstName R3
SYMATTR Value 10k
SYMBOL cap 736 128 R0
SYMATTR InstName C1
SYMATTR Value 1µ
SYMBOL res 736 80 R90
WINDOW 0 0 56 VBottom 2
WINDOW 3 32 56 VTop 2
SYMATTR InstName R4
SYMATTR Value 1k
SYMBOL diode -208 64 R270
WINDOW 0 32 32 VTop 2
WINDOW 3 0 32 VBottom 2
SYMATTR InstName D1
SYMATTR Value 1N4007
SYMBOL diode -208 160 R270
WINDOW 0 32 32 VTop 2
WINDOW 3 0 32 VBottom 2
SYMATTR InstName D2
SYMATTR Value 1N4007
SYMBOL diode -48 64 R270
WINDOW 0 32 32 VTop 2
WINDOW 3 0 32 VBottom 2
SYMATTR InstName D3
SYMATTR Value 1N4007
SYMBOL diode -48 160 R270
WINDOW 0 32 32 VTop 2
WINDOW 3 0 32 VBottom 2
SYMATTR InstName D4
SYMATTR Value 1N4007
SYMBOL Optos\\PC817B 416 800 R0
SYMATTR InstName U2
SYMBOL res 64 736 R90
WINDOW 0 0 56 VBottom 2
WINDOW 3 32 56 VTop 2
SYMATTR InstName R5
SYMATTR Value 330k
SYMBOL diode 176 832 R180
WINDOW 0 24 64 Left 2
WINDOW 3 24 0 Left 2
SYMATTR InstName D5
SYMATTR Value 1N4148
SYMBOL cap 608 768 R0
SYMATTR InstName C2
SYMATTR Value 1µ
SYMBOL res 608 608 R0
SYMATTR InstName R6
SYMATTR Value 10k
TEXT -80 504 Left 2 !.tran 100m
